[TITLE]


[JUNCTIONS]
;ID              	Elev        	Demand      	Pattern         
 J-1             	488.5406    	0           	                	;
 J-10            	479.4442    	1.91        	1               	;
 J-100           	469.2782    	1.89        	1               	;
 J-101           	473.0997    	0.41        	1               	;
 J-102           	477.6357    	3.21        	1               	;
 J-103           	501.3339    	1.13        	1               	;
 J-104           	512.9191    	1.32        	1               	;
 J-105           	447.4791    	1.17        	1               	;
 J-106           	448.0005    	0.77        	1               	;
 J-107           	486.3968    	5.24        	1               	;
 J-108           	493.0251    	5.19        	1               	;
 J-109           	479.2514    	2.01        	1               	;
 J-11            	510.9562    	1.26        	1               	;
 J-110           	476.8779    	0.66        	1               	;
 J-111           	458.5988    	1.26        	1               	;
 J-112           	458.92      	0.97        	1               	;
 J-113           	519.5972    	1.28        	1               	;
 J-114           	526.8351    	0.56        	1               	;
 J-115           	452.0381    	1.62        	1               	;
 J-116           	459.5506    	2.85        	1               	;
 J-117           	475.8924    	1.44        	1               	;
 J-118           	464.8242    	4           	1               	;
 J-119           	505         	3.76        	1               	;
 J-12            	497.7011    	2.55        	1               	;
 J-120           	503         	2.14        	1               	;
 J-121           	522.8993    	1.56        	1               	;
 J-122           	521.5494    	2.08        	1               	;
 J-123           	530.9999    	1.88        	1               	;
 J-124           	521.8985    	1.71        	1               	;
 J-125           	503.3083    	1.77        	1               	;
 J-126           	491.1395    	2.88        	1               	;
 J-127           	501         	0.3         	1               	;
 J-128           	490.0879    	0.96        	1               	;
 J-129           	493.0006    	0.67        	1               	;
 J-13            	477.9048    	2.31        	1               	;
 J-130           	455.125     	2.23        	1               	;
 J-131           	453.625     	1.13        	1               	;
 J-132           	520.2978    	2.73        	1               	;
 J-133           	516.8042    	1.7         	1               	;
 J-134           	501         	1.31        	1               	;
 J-135           	498.9111    	1.63        	1               	;
 J-136           	473.3589    	4.7         	1               	;
 J-137           	473.2273    	4.28        	1               	;
 J-138           	487.8831    	0.75        	1               	;
 J-139           	479.0066    	3.47        	1               	;
 J-14            	483.138     	1.96        	1               	;
 J-140           	440.9927    	1.34        	1               	;
 J-141           	442.7382    	4.38        	1               	;
 J-142           	442.9998    	2.7         	1               	;
 J-143           	440.3202    	1.03        	1               	;
 J-144           	476.0092    	1.05        	1               	;
 J-145           	447.0001    	1.92        	1               	;
 J-146           	513.8306    	1.77        	1               	;
 J-147           	454.7263    	1.54        	1               	;
 J-148           	463.9976    	1.34        	1               	;
 J-149           	459.1891    	3.57        	1               	;
 J-15            	498.9065    	1.12        	1               	;
 J-150           	446.7929    	4.16        	1               	;
 J-151           	530.7886    	0.52        	1               	;
 J-152           	528.1017    	0.44        	1               	;
 J-153           	488.9131    	2.47        	1               	;
 J-154           	499.0132    	2.81        	1               	;
 J-155           	472.0002    	1.09        	1               	;
 J-156           	472.1863    	1.9         	1               	;
 J-157           	497.6465    	0.35        	1               	;
 J-158           	496.649     	1.49        	1               	;
 J-159           	455.1941    	2.51        	1               	;
 J-16            	488.6935    	1.7         	1               	;
 J-160           	450.0687    	1           	1               	;
 J-161           	444.108     	3.24        	1               	;
 J-162           	441.1731    	1.17        	1               	;
 J-163           	505.6182    	2.88        	1               	;
 J-164           	521.0253    	4.48        	1               	;
 J-165           	455.856     	0.71        	1               	;
 J-166           	444.9332    	1.44        	1               	;
 J-167           	510.1582    	2.24        	1               	;
 J-168           	508.3722    	1.8         	1               	;
 J-169           	507.3455    	2.83        	1               	;
 J-17            	504.3348    	1.73        	1               	;
 J-170           	508.4157    	1.4         	1               	;
 J-171           	480.6542    	3.4         	1               	;
 J-172           	480.4165    	0.55        	1               	;
 J-173           	478         	0.38        	1               	;
 J-174           	475.5476    	1.39        	1               	;
 J-175           	477.4251    	1.39        	1               	;
 J-176           	467.4981    	1.73        	1               	;
 J-177           	452.579     	1.42        	1               	;
 J-178           	492.8872    	0.49        	1               	;
 J-179           	484.8264    	2.7         	1               	;
 J-18            	513.4354    	2.03        	1               	;
 J-180           	457.5754    	2.3         	1               	;
 J-181           	452.5247    	1.79        	1               	;
 J-182           	474.8399    	3.79        	1               	;
 J-183           	467.3019    	3.1         	1               	;
 J-184           	481.3306    	1.52        	1               	;
 J-185           	481.5532    	1.93        	1               	;
 J-186           	474.9516    	0.5         	1               	;
 J-187           	477.5147    	1.89        	1               	;
 J-188           	464.1764    	3.01        	1               	;
 J-189           	468.4871    	1.32        	1               	;
 J-19            	476.0375    	0.72        	1               	;
 J-190           	471.959     	3.83        	1               	;
 J-191           	473.8441    	1.32        	1               	;
 J-192           	520.9691    	2.69        	1               	;
 J-193           	520         	2.62        	1               	;
 J-194           	498.9041    	1.43        	1               	;
 J-195           	498.9963    	1.26        	1               	;
 J-196           	471.1962    	0.82        	1               	;
 J-197           	474.3276    	2.03        	1               	;
 J-198           	475.0072    	0.41        	1               	;
 J-199           	475.015     	0.38        	1               	;
 J-2             	488.9892    	0           	                	;
 J-20            	478.3458    	1.08        	1               	;
 J-200           	517.9286    	1.86        	1               	;
 J-201           	450.9189    	0.77        	1               	;
 J-202           	471.1505    	0.97        	1               	;
 J-203           	493.1509    	1.86        	1               	;
 J-204           	486.8931    	2.15        	1               	;
 J-205           	482.222     	3.83        	1               	;
 J-206           	474.0369    	2.2         	1               	;
 J-207           	447.7188    	1.26        	1               	;
 J-208           	444         	2.01        	1               	;
 J-209           	445.0006    	0.85        	1               	;
 J-21            	470.0976    	0.98        	1               	;
 J-210           	473.2309    	1.45        	1               	;
 J-211           	509.3977    	1.36        	1               	;
 J-212           	476.6284    	1.68        	1               	;
 J-213           	473.3621    	2.38        	1               	;
 J-214           	492.0016    	2.05        	1               	;
 J-215           	493.0029    	1.24        	1               	;
 J-216           	463.4636    	1.48        	1               	;
 J-217           	466.7375    	1.4         	1               	;
 J-218           	485.0614    	2.04        	1               	;
 J-219           	480.0102    	3.64        	1               	;
 J-22            	469.1679    	0.34        	1               	;
 J-220           	440.0331    	1.05        	1               	;
 J-221           	445.8811    	2.17        	1               	;
 J-222           	478.9743    	2.86        	1               	;
 J-223           	487.076     	1.17        	1               	;
 J-224           	453.9985    	1.75        	1               	;
 J-225           	451.5419    	2.67        	1               	;
 J-226           	485.5032    	1.25        	1               	;
 J-227           	458.0467    	1.49        	1               	;
 J-228           	521.9971    	4.51        	1               	;
 J-229           	461.1873    	0           	                	;
 J-23            	454.3266    	1.75        	1               	;
 J-230           	483.8197    	1.03        	1               	;
 J-231           	483.4978    	2.67        	1               	;
 J-232           	481.7785    	3.19        	1               	;
 J-233           	488.6114    	0.41        	1               	;
 J-234           	480.955     	1.03        	1               	;
 J-235           	440.0237    	2.12        	1               	;
 J-236           	494.9785    	3.12        	1               	;
 J-237           	500.9979    	2.04        	1               	;
 J-238           	481.473     	1.17        	1               	;
 J-239           	480.2177    	0.97        	1               	;
 J-24            	456.0285    	3.1         	1               	;
 J-240           	494.8975    	1.96        	1               	;
 J-241           	494.3561    	0.9         	1               	;
 J-242           	504.653     	1.58        	1               	;
 J-243           	496.6191    	0.38        	1               	;
 J-244           	488.9932    	3.33        	1               	;
 J-245           	488.7381    	3.25        	1               	;
 J-246           	500.0001    	2.33        	1               	;
 J-247           	499.9702    	2.62        	1               	;
 J-248           	505.675     	1.61        	1               	;
 J-249           	512.3477    	0.86        	1               	;
 J-25            	495.0992    	6.8         	1               	;
 J-250           	464.525     	1.89        	1               	;
 J-251           	459         	2.44        	1               	;
 J-252           	481         	1.97        	1               	;
 J-253           	458.8113    	2.1         	1               	;
 J-254           	458.3014    	1.77        	1               	;
 J-255           	446.9822    	2.63        	1               	;
 J-256           	459.5058    	2.45        	1               	;
 J-257           	479.0796    	0           	                	;
 J-258           	478.0002    	0.68        	1               	;
 J-259           	522.8731    	1.2         	1               	;
 J-26            	484.1131    	3.74        	1               	;
 J-260           	453.9576    	0.36        	1               	;
 J-261           	454.9423    	3.49        	1               	;
 J-262           	503.14      	1.58        	1               	;
 J-263           	509.0131    	2.12        	1               	;
 J-264           	497.9042    	0.76        	1               	;
 J-265           	511.9526    	2.67        	1               	;
 J-266           	520.0634    	1.13        	1               	;
 J-267           	440.0227    	1.83        	1               	;
 J-268           	464.2132    	1.57        	1               	;
 J-269           	440.2242    	1.91        	1               	;
 J-27            	510.001     	3.41        	1               	;
 J-270           	459.3597    	3.64        	1               	;
 J-271           	472.6274    	1.4         	1               	;
 J-272           	497.1954    	1.47        	1               	;
 J-273           	467.6498    	2.52        	1               	;
 J-274           	473.7466    	1.16        	1               	;
 J-275           	488.1365    	0.2         	1               	;
 J-276           	479.2142    	3.11        	1               	;
 J-277           	471.7818    	2.68        	1               	;
 J-278           	496.8242    	0.4         	1               	;
 J-279           	465.7387    	3.98        	1               	;
 J-28            	520.0015    	2.37        	1               	;
 J-280           	467.7578    	1           	1               	;
 J-281           	477.5254    	0.88        	1               	;
 J-282           	479.955     	1.23        	1               	;
 J-283           	488.524     	2.06        	1               	;
 J-284           	494.4372    	2.33        	1               	;
 J-285           	520.1152    	1.47        	1               	;
 J-286           	523.4064    	2.21        	1               	;
 J-287           	462.7112    	0.18        	1               	;
 J-288           	463.55      	1.13        	1               	;
 J-289           	460.311     	0.96        	1               	;
 J-29            	454.374     	1           	1               	;
 J-290           	478.9996    	1.87        	1               	;
 J-291           	473.7595    	2.73        	1               	;
 J-292           	448.0005    	0.06        	1               	;
 J-293           	522.3467    	2.4         	1               	;
 J-294           	478.8261    	0.84        	1               	;
 J-295           	497.423     	0.39        	1               	;
 J-296           	466.1673    	2.93        	1               	;
 J-297           	480         	0.88        	1               	;
 J-298           	506.8402    	1.37        	1               	;
 J-299           	468.0873    	1.54        	1               	;
 J-3             	488.0764    	1.4         	1               	;
 J-30            	492.6423    	2.18        	1               	;
 J-300           	484.5409    	2           	1               	;
 J-301           	503.3831    	1.03        	1               	;
 J-302           	490.0032    	0.06        	1               	;
 J-303           	513.9004    	1.56        	1               	;
 J-304           	449.5522    	2.65        	1               	;
 J-305           	479.6667    	3.82        	1               	;
 J-306           	471.6093    	1.52        	1               	;
 J-307           	473.8167    	2.49        	1               	;
 J-308           	469.9219    	0.89        	1               	;
 J-309           	452.3435    	4.04        	1               	;
 J-31            	485.9098    	4.43        	1               	;
 J-310           	460.8619    	3.23        	1               	;
 J-311           	486.0648    	0           	                	;
 J-312           	467.7674    	0           	                	;
 J-313           	472.9849    	0.81        	1               	;
 J-314           	474.1019    	1.61        	1               	;
 J-315           	466.852     	2.59        	1               	;
 J-316           	459.2553    	0.62        	1               	;
 J-317           	462.6216    	0.2         	1               	;
 J-318           	477.0228    	1.12        	1               	;
 J-319           	473.3543    	1.48        	1               	;
 J-32            	473.6433    	1.71        	1               	;
 J-320           	500.0403    	1.66        	1               	;
 J-321           	501.1534    	1.43        	1               	;
 J-322           	473.8333    	1.57        	1               	;
 J-323           	465.7713    	1.07        	1               	;
 J-324           	470.8425    	2.37        	1               	;
 J-325           	473.929     	2.08        	1               	;
 J-326           	483.2548    	1           	1               	;
 J-327           	445.4799    	3.37        	1               	;
 J-328           	458.6782    	3.75        	1               	;
 J-329           	461.4047    	1.74        	1               	;
 J-33            	488.2647    	2.65        	1               	;
 J-330           	471.6142    	1.89        	1               	;
 J-331           	501.4004    	2.47        	1               	;
 J-332           	500.0012    	1.99        	1               	;
 J-333           	480.0255    	1.05        	1               	;
 J-334           	477.1015    	1.8         	1               	;
 J-335           	517.6356    	6.82        	1               	;
 J-336           	521.3127    	2.24        	1               	;
 J-337           	470.5301    	2.87        	1               	;
 J-338           	474.6365    	1.75        	1               	;
 J-339           	478.8762    	2.68        	1               	;
 J-34            	495.1897    	2           	1               	;
 J-340           	475.7367    	1.4         	1               	;
 J-341           	456.8048    	1.06        	1               	;
 J-342           	484.1961    	1.94        	1               	;
 J-343           	483.1673    	0.45        	1               	;
 J-344           	498.9051    	0.44        	1               	;
 J-345           	500.2191    	1.31        	1               	;
 J-346           	478.9127    	3.56        	1               	;
 J-347           	477.9225    	2.94        	1               	;
 J-348           	506.494     	2.17        	1               	;
 J-349           	497.2019    	1.25        	1               	;
 J-35            	475.8574    	4.96        	1               	;
 J-350           	507.0121    	1.01        	1               	;
 J-351           	509.2015    	2.79        	1               	;
 J-352           	487.0473    	0           	                	;
 J-353           	474.1286    	1           	1               	;
 J-354           	475.3296    	2.6         	1               	;
 J-355           	488.8994    	2.37        	1               	;
 J-356           	488.488     	1           	1               	;
 J-357           	492.4986    	1.67        	1               	;
 J-358           	479.3627    	0.59        	1               	;
 J-359           	503.8715    	2.23        	1               	;
 J-36            	491.0832    	1.73        	1               	;
 J-360           	468.499     	1.45        	1               	;
 J-361           	479.9712    	5.15        	1               	;
 J-362           	472.0659    	1.38        	1               	;
 J-363           	494.0436    	2.97        	1               	;
 J-364           	477.8499    	3.43        	1               	;
 J-365           	483.3193    	3.71        	1               	;
 J-366           	479.1212    	4.07        	1               	;
 J-367           	504.9601    	1.96        	1               	;
 J-368           	490.0106    	1.13        	1               	;
 J-369           	499.3129    	6.03        	1               	;
 J-37            	480.9976    	3.06        	1               	;
 J-370           	472.5466    	1.82        	1               	;
 J-371           	458.0799    	2.32        	1               	;
 J-372           	453.9267    	0           	                	;
 J-373           	477.5958    	0           	                	;
 J-374           	499.0708    	1.12        	1               	;
 J-375           	462.8761    	2.29        	1               	;
 J-376           	458.0417    	0.97        	1               	;
 J-377           	444.8056    	4.13        	1               	;
 J-378           	480.4988    	3.7         	1               	;
 J-379           	447.7667    	1.23        	1               	;
 J-38            	474.2695    	1.81        	1               	;
 J-380           	513.0482    	7.45        	1               	;
 J-381           	520.2845    	1.78        	1               	;
 J-382           	482.4785    	1.2         	1               	;
 J-383           	503.534     	2.05        	1               	;
 J-384           	507.8481    	2.06        	1               	;
 J-385           	488.1151    	1.77        	1               	;
 J-386           	520.9415    	4.28        	1               	;
 J-387           	498.9027    	0.75        	1               	;
 J-388           	491.1766    	2           	1               	;
 J-389           	468.7652    	0.44        	1               	;
 J-39            	476.955     	0.46        	1               	;
 J-390           	511.7228    	2.66        	1               	;
 J-391           	508.4629    	4.24        	1               	;
 J-392           	493.2849    	2.1         	1               	;
 J-393           	501         	2.65        	1               	;
 J-394           	513.2495    	2.17        	1               	;
 J-395           	438.1302    	1.66        	1               	;
 J-396           	474.7549    	4.77        	1               	;
 J-397           	487.6299    	1.7         	1               	;
 J-398           	511.0003    	2.6         	1               	;
 J-399           	465.4232    	0.23        	1               	;
 J-4             	476.9998    	4.11        	1               	;
 J-40            	469.3909    	1.03        	1               	;
 J-400           	518.3047    	0.95        	1               	;
 J-401           	474.2361    	0           	                	;
 J-402           	459.633     	1.89        	1               	;
 J-403           	479.1885    	0.12        	1               	;
 J-404           	447.4148    	2.26        	1               	;
 J-405           	490.5405    	0.28        	1               	;
 J-406           	467.8786    	1.01        	1               	;
 J-407           	474.7482    	1.41        	1               	;
 J-408           	451.3787    	1.58        	1               	;
 J-409           	508.2117    	1.19        	1               	;
 J-41            	469.054     	2.79        	1               	;
 J-410           	479.2903    	2.87        	1               	;
 J-411           	465.7178    	1.59        	1               	;
 J-412           	498.942     	0.4         	1               	;
 J-413           	495.8615    	0.1         	1               	;
 J-414           	482.3524    	2.04        	1               	;
 J-415           	474.4174    	0           	                	;
 J-416           	448.3438    	0.97        	1               	;
 J-417           	473.2675    	2.78        	1               	;
 J-418           	522.6591    	2.78        	1               	;
 J-419           	521.0413    	1.48        	1               	;
 J-42            	474.3353    	3.71        	1               	;
 J-420           	470.1938    	2.06        	1               	;
 J-421           	461.1829    	5.84        	1               	;
 J-422           	479.6041    	1.96        	1               	;
 J-423           	512.6216    	2.78        	1               	;
 J-424           	510.8972    	1.22        	1               	;
 J-425           	454.0801    	1.22        	1               	;
 J-426           	455.9327    	0.41        	1               	;
 J-427           	450.7117    	2.4         	1               	;
 J-428           	476.3597    	2.17        	1               	;
 J-429           	503.9842    	1.18        	1               	;
 J-43            	481.2534    	0.99        	1               	;
 J-430           	500.7206    	0.26        	1               	;
 J-431           	465.9268    	5.39        	1               	;
 J-432           	465.6077    	0.35        	1               	;
 J-433           	488.8943    	1.98        	1               	;
 J-434           	513.7797    	1.57        	1               	;
 J-435           	500.012     	0.48        	1               	;
 J-436           	464.6693    	0.88        	1               	;
 J-437           	447.0018    	1.86        	1               	;
 J-438           	515.4642    	4.2         	1               	;
 J-439           	512.6067    	1.04        	1               	;
 J-44            	479.071     	0.81        	1               	;
 J-440           	474.2805    	0.75        	1               	;
 J-441           	526.8813    	3.3         	1               	;
 J-442           	524.0762    	1.2         	1               	;
 J-443           	511.8596    	0.36        	1               	;
 J-444           	492.1432    	3.27        	1               	;
 J-445           	481.2613    	0.2         	1               	;
 J-446           	497.3239    	3.68        	1               	;
 J-447           	477.8204    	1.18        	1               	;
 J-448           	479.9821    	0.9         	1               	;
 J-449           	454.3603    	1.7         	1               	;
 J-45            	491.6044    	0.88        	1               	;
 J-450           	482.8698    	3.64        	1               	;
 J-451           	514.0768    	3.06        	1               	;
 J-452           	524.6258    	3.88        	1               	;
 J-453           	453.7997    	2.78        	1               	;
 J-454           	482.7403    	1.62        	1               	;
 J-455           	487.5103    	1.34        	1               	;
 J-456           	477.5176    	3.18        	1               	;
 J-457           	463.0746    	2.31        	1               	;
 J-458           	440.019     	7.12        	1               	;
 J-459           	435.0195    	5.3         	1               	;
 J-46            	491.1705    	0.24        	1               	;
 J-460           	502.0243    	2.79        	1               	;
 J-461           	509.5276    	2.47        	1               	;
 J-462           	518.6579    	2.52        	1               	;
 J-463           	485.52      	2.42        	1               	;
 J-464           	490.5504    	1.78        	1               	;
 J-465           	474.9118    	2.57        	1               	;
 J-466           	522.1968    	2.68        	1               	;
 J-467           	514.461     	1.38        	1               	;
 J-468           	512.7116    	1.45        	1               	;
 J-469           	506.4176    	1.28        	1               	;
 J-47            	500.7562    	1.28        	1               	;
 J-470           	479.8321    	0.95        	1               	;
 J-471           	508.0008    	1.81        	1               	;
 J-472           	453.1176    	3.66        	1               	;
 J-473           	472.8798    	8.18        	1               	;
 J-474           	468.6486    	1.69        	1               	;
 J-475           	472.3679    	0.4         	1               	;
 J-476           	482.6245    	1.15        	1               	;
 J-477           	502.29      	1.94        	1               	;
 J-478           	520.2753    	2.36        	1               	;
 J-479           	521.487     	0.7         	1               	;
 J-48            	497.0075    	2.01        	1               	;
 J-480           	441.9067    	1.18        	1               	;
 J-481           	494.3117    	2.49        	1               	;
 J-482           	520.0481    	0.42        	1               	;
 J-483           	530.4333    	2.33        	1               	;
 J-484           	445.9117    	2.89        	1               	;
 J-485           	488.2168    	0.56        	1               	;
 J-486           	524.4078    	1.35        	1               	;
 J-487           	520.0761    	0.21        	1               	;
 J-488           	493.0356    	4.14        	1               	;
 J-489           	493.8779    	3.46        	1               	;
 J-49            	472.5791    	2.66        	1               	;
 J-490           	450.0022    	2.65        	1               	;
 J-491           	450.1251    	1.19        	1               	;
 J-492           	496.1911    	2.55        	1               	;
 J-493           	445.1418    	1.92        	1               	;
 J-494           	474.9087    	1.19        	1               	;
 J-495           	468.6072    	1.1         	1               	;
 J-496           	495.0202    	4.25        	1               	;
 J-497           	499.0987    	2.09        	1               	;
 J-498           	442         	0.7         	1               	;
 J-499           	442         	1.57        	1               	;
 J-5             	510.9996    	1.5         	1               	;
 J-50            	468.1243    	2.43        	1               	;
 J-500           	466.0906    	5.71        	1               	;
 J-501           	463.3187    	2.4         	1               	;
 J-502           	517.9044    	3.12        	1               	;
 J-503           	521.841     	3.11        	1               	;
 J-504           	476.5872    	1.92        	1               	;
 J-505           	476.7067    	1.77        	1               	;
 J-506           	521.5006    	0.22        	1               	;
 J-507           	468.0522    	1.84        	1               	;
 J-508           	482.1042    	2.27        	1               	;
 J-509           	457.0009    	2.89        	1               	;
 J-51            	480.0001    	1.9         	1               	;
 J-510           	467.0146    	0.14        	1               	;
 J-511           	455.7843    	3.85        	1               	;
 J-512           	484.6204    	1.12        	1               	;
 J-513           	502.7373    	3.37        	1               	;
 J-514           	496.9591    	1.88        	1               	;
 J-515           	498.8972    	2.06        	1               	;
 J-516           	523.4911    	4.62        	1               	;
 J-517           	474.0187    	1.73        	1               	;
 J-518           	457.1637    	1.25        	1               	;
 J-519           	450.4954    	1.19        	1               	;